<edges>
<edge from="n1" to="n2" id="1to2_0" type="3L45"/>
<edge from="n1" to="n2" id="1to2_1" type="3L45"/>
<edge from="n1" to="n2" id="1to2_2" type="3L45"/>
<edge from="n2" to="n3" id="2to3_0" type="2L15"/>
<edge from="n2" to="n3" id="2to3_1" type="2L15"/>
<edge from="n3" to="n4" id="3to4_0" type="3L30"/>
<edge from="n3" to="n4" id="3to4_1" type="3L30"/>
<edge from="n3" to="n4" id="3to4_2" type="3L30"/>
<edge from="n4" to="n5" id="out_0" type="3L30"/>
<edge from="n4" to="n5" id="out_1" type="3L30"/>
<edge from="n4" to="n5" id="out_2" type="3L30"/>
</edges>